# generated using pymatgen
data_Bi2O3
_symmetry_space_group_name_H-M   P2_1/c
_cell_length_a   5.87198750
_cell_length_b   8.11531262
_cell_length_c   7.44734902
_cell_angle_alpha   90.00000000
_cell_angle_beta   112.48046607
_cell_angle_gamma   90.00000000
_symmetry_Int_Tables_number   14
_chemical_formula_structural   Bi2O3
_chemical_formula_sum   'Bi8 O12'
_cell_volume   327.92062332
_cell_formula_units_Z   4
loop_
 _symmetry_equiv_pos_site_id
 _symmetry_equiv_pos_as_xyz
  1  'x, y, z'
  2  '-x, -y, -z'
  3  '-x, y+1/2, -z+1/2'
  4  'x, -y+1/2, z+1/2'
loop_
 _atom_type_symbol
 _atom_type_oxidation_number
  Bi3+  3.0
  O2-  -2.0
loop_
 _atom_site_type_symbol
 _atom_site_label
 _atom_site_symmetry_multiplicity
 _atom_site_fract_x
 _atom_site_fract_y
 _atom_site_fract_z
 _atom_site_occupancy
  Bi3+  Bi0  4  0.02273055  0.18672478  0.86696427  1
  Bi3+  Bi1  4  0.46033891  0.54334175  0.22379069  1
  O2-  O2  4  0.22971774  0.53178877  0.48850775  1
  O2-  O3  4  0.26422273  0.55060673  0.87565545  1
  O2-  O4  4  0.27766709  0.20314400  0.70812572  1
