# generated using pymatgen
data_MnO2
_symmetry_space_group_name_H-M   C2/m
_cell_length_a   13.64869041
_cell_length_b   2.85692487
_cell_length_c   4.44432695
_cell_angle_alpha   90.00000000
_cell_angle_beta   92.08826110
_cell_angle_gamma   90.00000000
_symmetry_Int_Tables_number   12
_chemical_formula_structural   MnO2
_chemical_formula_sum   'Mn6 O12'
_cell_volume   173.18380805
_cell_formula_units_Z   6
loop_
 _symmetry_equiv_pos_site_id
 _symmetry_equiv_pos_as_xyz
  1  'x, y, z'
  2  '-x, -y, -z'
  3  '-x, y, -z'
  4  'x, -y, z'
  5  'x+1/2, y+1/2, z'
  6  '-x+1/2, -y+1/2, -z'
  7  '-x+1/2, y+1/2, -z'
  8  'x+1/2, -y+1/2, z'
loop_
 _atom_type_symbol
 _atom_type_oxidation_number
  Mn4+  4.0
  O2-  -2.0
loop_
 _atom_site_type_symbol
 _atom_site_label
 _atom_site_symmetry_multiplicity
 _atom_site_fract_x
 _atom_site_fract_y
 _atom_site_fract_z
 _atom_site_occupancy
  Mn4+  Mn0  4  0.15886582  0.50000000  0.01785634  1
  Mn4+  Mn1  2  0.00000000  0.00000000  0.50000000  1
  O2-  O2  4  0.06113984  0.50000000  0.30698240  1
  O2-  O3  4  0.10108018  0.00000000  0.80315278  1
  O2-  O4  4  0.22697101  0.00000000  0.21482514  1
