# generated using pymatgen
data_Nb2O5
_symmetry_space_group_name_H-M   P2
_cell_length_a   19.78875700
_cell_length_b   3.87190600
_cell_length_c   20.81448077
_cell_angle_alpha   90.00000000
_cell_angle_beta   115.70923627
_cell_angle_gamma   90.00000000
_symmetry_Int_Tables_number   3
_chemical_formula_structural   Nb2O5
_chemical_formula_sum   'Nb28 O70'
_cell_volume   1436.93497824
_cell_formula_units_Z   14
loop_
 _symmetry_equiv_pos_site_id
 _symmetry_equiv_pos_as_xyz
  1  'x, y, z'
  2  '-x, y, -z'
loop_
 _atom_type_symbol
 _atom_type_oxidation_number
  Nb5+  5.0
  O2-  -2.0
loop_
 _atom_site_type_symbol
 _atom_site_label
 _atom_site_symmetry_multiplicity
 _atom_site_fract_x
 _atom_site_fract_y
 _atom_site_fract_z
 _atom_site_occupancy
  Nb5+  Nb0  2  0.00405600  0.00710200  0.23685100  1
  Nb5+  Nb1  2  0.11035800  0.51434300  0.90739700  1
  Nb5+  Nb2  2  0.15156000  0.99651700  0.69656500  1
  Nb5+  Nb3  2  0.15570700  0.97953700  0.43344500  1
  Nb5+  Nb4  2  0.15985100  0.98869500  0.16587300  1
  Nb5+  Nb5  2  0.26526800  0.49357200  0.10195600  1
  Nb5+  Nb6  2  0.26572100  0.49627900  0.84158100  1
  Nb5+  Nb7  2  0.30680100  0.00196200  0.62887900  1
  Nb5+  Nb8  2  0.31509800  0.00096700  0.36090900  1
  Nb5+  Nb9  2  0.41882200  0.49854200  0.77084000  1
  Nb5+  Nb10  2  0.42148700  0.50038300  0.29641800  1
  Nb5+  Nb11  2  0.42506100  0.52463500  0.03593900  1
  Nb5+  Nb12  2  0.46822200  0.00017500  0.56216200  1
  Nb5+  Nb13  1  0.00000000  0.02746700  0.50000000  1
  Nb5+  Nb14  1  0.00000000  0.23379000  0.00000000  1
  O2-  O15  2  0.01370000  0.50452000  0.79368500  1
  O2-  O16  2  0.02629900  0.50540600  0.94046600  1
  O2-  O17  2  0.07640300  0.00113200  0.73558200  1
  O2-  O18  2  0.07952700  0.99296900  0.46387900  1
  O2-  O19  2  0.08111000  0.99637500  0.60267700  1
  O2-  O20  2  0.08182300  0.00819200  0.32675500  1
  O2-  O21  2  0.08496400  0.00612100  0.88210800  1
  O2-  O22  2  0.08578600  0.99541400  0.19556900  1
  O2-  O23  2  0.08672200  0.99311300  0.06108700  1
  O2-  O24  2  0.16545900  0.50056200  0.42616300  1
  O2-  O25  2  0.17406800  0.49863200  0.72321600  1
  O2-  O26  2  0.17988000  0.49463900  0.15315400  1
  O2-  O27  2  0.18146300  0.50488900  0.00311900  1
  O2-  O28  2  0.18186300  0.50018700  0.86818700  1
  O2-  O29  2  0.23783700  0.00026000  0.66822100  1
  O2-  O30  2  0.23830900  0.00488200  0.53397500  1
  O2-  O31  2  0.24543000  0.99844900  0.81305500  1
  O2-  O32  2  0.24630100  0.99993400  0.26277800  1
  O2-  O33  2  0.24743700  0.99648600  0.11466500  1
  O2-  O34  2  0.25309200  0.00132900  0.40279000  1
  O2-  O35  2  0.33570400  0.50071900  0.65336100  1
  O2-  O36  2  0.33906900  0.49381900  0.07278800  1
  O2-  O37  2  0.33941000  0.49501300  0.93361800  1
  O2-  O38  2  0.34046900  0.50003800  0.20838700  1
  O2-  O39  2  0.34133800  0.50040100  0.79902600  1
  O2-  O40  2  0.34324600  0.50055500  0.35454100  1
  O2-  O41  2  0.39267900  0.99996800  0.58889600  1
  O2-  O42  2  0.40499700  0.99979200  0.74088500  1
  O2-  O43  2  0.41499600  0.99970500  0.03662400  1
  O2-  O44  2  0.42276900  0.00023400  0.46171200  1
  O2-  O45  2  0.42633300  0.00035300  0.32927900  1
  O2-  O46  2  0.49642600  0.50018300  0.58582200  1
  O2-  O47  2  0.49876000  0.50054800  0.27170000  1
  O2-  O48  2  0.49907200  0.49643300  0.86192900  1
  O2-  O49  1  0.00000000  0.50092500  0.50000000  1
  O2-  O50  1  0.50000000  0.49989600  0.00000000  1
