# generated using pymatgen
data_NbO2
_symmetry_space_group_name_H-M   I4_1/a
_cell_length_a   9.77582484
_cell_length_b   9.77582484
_cell_length_c   6.04045043
_cell_angle_alpha   90.00000000
_cell_angle_beta   90.00000000
_cell_angle_gamma   90.00000000
_symmetry_Int_Tables_number   88
_chemical_formula_structural   NbO2
_chemical_formula_sum   'Nb16 O32'
_cell_volume   577.26622416
_cell_formula_units_Z   16
loop_
 _symmetry_equiv_pos_site_id
 _symmetry_equiv_pos_as_xyz
  1  'x, y, z'
  2  '-y, x+1/2, z+1/4'
  3  '-x+1/2, -y+1/2, z+1/2'
  4  'y+1/2, -x, z+3/4'
  5  '-x, -y+1/2, -z+1/4'
  6  'y, -x, -z'
  7  'x+1/2, y, -z+3/4'
  8  '-y+1/2, x+1/2, -z+1/2'
  9  'x+1/2, y+1/2, z+1/2'
  10  '-y+1/2, x, z+3/4'
  11  '-x, -y, z'
  12  'y, -x+1/2, z+1/4'
  13  '-x+1/2, -y, -z+3/4'
  14  'y+1/2, -x+1/2, -z+1/2'
  15  'x, y+1/2, -z+1/4'
  16  '-y, x, -z'
loop_
 _atom_type_symbol
 _atom_type_oxidation_number
  Nb4+  4.0
  O2-  -2.0
loop_
 _atom_site_type_symbol
 _atom_site_label
 _atom_site_symmetry_multiplicity
 _atom_site_fract_x
 _atom_site_fract_y
 _atom_site_fract_z
 _atom_site_occupancy
  Nb4+  Nb0  16  0.01152399  0.24172702  0.34859746  1
  O2-  O1  16  0.10187045  0.34797814  0.63265413  1
  O2-  O2  16  0.10957513  0.36493119  0.11264735  1
