# generated using pymatgen
data_Ta2O5
_symmetry_space_group_name_H-M   C2/c
_cell_length_a   12.84482296
_cell_length_b   4.86775326
_cell_length_c   5.53778915
_cell_angle_alpha   90.00000000
_cell_angle_beta   103.80556425
_cell_angle_gamma   90.00000000
_symmetry_Int_Tables_number   15
_chemical_formula_structural   Ta2O5
_chemical_formula_sum   'Ta8 O20'
_cell_volume   336.24978742
_cell_formula_units_Z   4
loop_
 _symmetry_equiv_pos_site_id
 _symmetry_equiv_pos_as_xyz
  1  'x, y, z'
  2  '-x, -y, -z'
  3  '-x, y, -z+1/2'
  4  'x, -y, z+1/2'
  5  'x+1/2, y+1/2, z'
  6  '-x+1/2, -y+1/2, -z'
  7  '-x+1/2, y+1/2, -z+1/2'
  8  'x+1/2, -y+1/2, z+1/2'
loop_
 _atom_type_symbol
 _atom_type_oxidation_number
  Ta5+  5.0
  O2-  -2.0
loop_
 _atom_site_type_symbol
 _atom_site_label
 _atom_site_symmetry_multiplicity
 _atom_site_fract_x
 _atom_site_fract_y
 _atom_site_fract_z
 _atom_site_occupancy
  Ta5+  Ta0  8  0.14011996  0.24608127  0.76656194  1
  O2-  O1  8  0.10982678  0.44540729  0.47495560  1
  O2-  O2  8  0.20510504  0.07068303  0.12759778  1
  O2-  O3  4  0.00000000  0.10131797  0.75000000  1
