# generated using pymatgen
data_VO2
_symmetry_space_group_name_H-M   C2/m
_cell_length_a   11.97617369
_cell_length_b   3.68799743
_cell_length_c   6.40497848
_cell_angle_alpha   90.00000000
_cell_angle_beta   106.76361453
_cell_angle_gamma   90.00000000
_symmetry_Int_Tables_number   12
_chemical_formula_structural   VO2
_chemical_formula_sum   'V8 O16'
_cell_volume   270.87345463
_cell_formula_units_Z   8
loop_
 _symmetry_equiv_pos_site_id
 _symmetry_equiv_pos_as_xyz
  1  'x, y, z'
  2  '-x, -y, -z'
  3  '-x, y, -z'
  4  'x, -y, z'
  5  'x+1/2, y+1/2, z'
  6  '-x+1/2, -y+1/2, -z'
  7  '-x+1/2, y+1/2, -z'
  8  'x+1/2, -y+1/2, z'
loop_
 _atom_type_symbol
 _atom_type_oxidation_number
  V4+  4.0
  O2-  -2.0
loop_
 _atom_site_type_symbol
 _atom_site_label
 _atom_site_symmetry_multiplicity
 _atom_site_fract_x
 _atom_site_fract_y
 _atom_site_fract_z
 _atom_site_occupancy
  V4+  V0  4  0.10015788  0.50000000  0.69849415  1
  V4+  V1  4  0.19646433  0.50000000  0.27924042  1
  O2-  O2  4  0.05930756  0.50000000  0.36931303  1
  O2-  O3  4  0.13453456  0.00000000  0.70476451  1
  O2-  O4  4  0.13763353  0.50000000  0.00772776  1
  O2-  O5  4  0.23244248  0.00000000  0.34579449  1
