# generated using pymatgen
data_ZrO2
_symmetry_space_group_name_H-M   P2_1/c
_cell_length_a   5.15398784
_cell_length_b   5.22810872
_cell_length_c   5.32969616
_cell_angle_alpha   90.00000000
_cell_angle_beta   99.43692258
_cell_angle_gamma   90.00000000
_symmetry_Int_Tables_number   14
_chemical_formula_structural   ZrO2
_chemical_formula_sum   'Zr4 O8'
_cell_volume   141.66836533
_cell_formula_units_Z   4
loop_
 _symmetry_equiv_pos_site_id
 _symmetry_equiv_pos_as_xyz
  1  'x, y, z'
  2  '-x, -y, -z'
  3  '-x, y+1/2, -z+1/2'
  4  'x, -y+1/2, z+1/2'
loop_
 _atom_type_symbol
 _atom_type_oxidation_number
  Zr4+  4.0
  O2-  -2.0
loop_
 _atom_site_type_symbol
 _atom_site_label
 _atom_site_symmetry_multiplicity
 _atom_site_fract_x
 _atom_site_fract_y
 _atom_site_fract_z
 _atom_site_occupancy
  Zr4+  Zr0  4  0.27630917  0.04214657  0.20959759  1
  O2-  O1  4  0.06920860  0.16628806  0.84382813  1
  O2-  O2  4  0.44930303  0.74257956  0.97860433  1
